REMARK WARNING: 32 MAX_TORS EXCEEDED!!!
REMARK  111 active torsions:
REMARK  status: ('A' for Active; 'I' for Inactive)
REMARK    1  A    between atoms: C1_1  and  O_257 
REMARK    2  A    between atoms: C2_2  and  O1_3 
REMARK    3  A    between atoms: C4_5  and  O2_6 
REMARK    4  A    between atoms: C6_8  and  O6_14 
REMARK    5  A    between atoms: C7_9  and  C8_11 
REMARK    6  A    between atoms: C9_15  and  O6_14 
REMARK    7  A    between atoms: C10_16  and  O7_17 
REMARK    8  A    between atoms: O7_17  and  S1_18 
REMARK    9  A    between atoms: C11_22  and  O11_23 
REMARK   10  A    between atoms: O11_23  and  S2_24 
REMARK   11  A    between atoms: C12_28  and  O15_29 
REMARK   12  A    between atoms: C13_30  and  O15_29 
REMARK   13  A    between atoms: C14_31  and  O16_32 
REMARK   14  A    between atoms: C16_34  and  O17_35 
REMARK   15  A    between atoms: C18_37  and  O21_43 
REMARK   16  A    between atoms: C19_38  and  C20_40 
REMARK   17  A    between atoms: C21_44  and  O21_43 
REMARK   18  A    between atoms: C22_45  and  O22_46 
REMARK   19  A    between atoms: C24_48  and  O23_49 
REMARK   20  A    between atoms: C26_51  and  O29_60 
REMARK   21  A    between atoms: C27_52  and  C28_54 
REMARK   22  A    between atoms: C28_54  and  O25_55 
REMARK   23  A    between atoms: O25_55  and  S3_56 
REMARK   24  A    between atoms: C29_61  and  O29_60 
REMARK   25  A    between atoms: C30_63  and  C31_64 
REMARK   26  A    between atoms: C31_64  and  O31_65 
REMARK   27  A    between atoms: C33_67  and  O34_74 
REMARK   28  A    between atoms: C34_68  and  O33_72 
REMARK   29  A    between atoms: C35_69  and  O32_70 
REMARK   30  A    between atoms: C38_75  and  O34_74 
REMARK   31  A    between atoms: C_246  and  C39_77 
REMARK   32  A    between atoms: C40_78  and  O38_85 
REMARK   33  A    between atoms: C41_79  and  O36_80 
REMARK   34  A    between atoms: C43_82  and  O37_83 
REMARK   35  A    between atoms: C45_86  and  O38_85 
REMARK   36  A    between atoms: C46_88  and  C47_89 
REMARK   37  A    between atoms: C47_89  and  O40_90 
REMARK   38  A    between atoms: C49_92  and  O43_99 
REMARK   39  A    between atoms: C50_93  and  O42_97 
REMARK   40  A    between atoms: C51_94  and  O41_95 
REMARK   41  A    between atoms: C54_100  and  O43_99 
REMARK   42  A    between atoms: C_243  and  C55_102 
REMARK   43  A    between atoms: C56_103  and  O47_110 
REMARK   44  A    between atoms: C57_104  and  O45_105 
REMARK   45  A    between atoms: C59_107  and  O46_108 
REMARK   46  A    between atoms: C61_111  and  O47_110 
REMARK   47  A    between atoms: C62_113  and  C63_114 
REMARK   48  A    between atoms: C63_114  and  O49_115 
REMARK   49  A    between atoms: C65_117  and  O52_124 
REMARK   50  A    between atoms: C66_118  and  O51_122 
REMARK   51  A    between atoms: C67_119  and  O50_120 
REMARK   52  A    between atoms: C70_125  and  O52_124 
REMARK   53  A    between atoms: C_240  and  C71_127 
REMARK   54  A    between atoms: C72_128  and  O56_135 
REMARK   55  A    between atoms: C73_129  and  O54_130 
REMARK   56  A    between atoms: C75_132  and  O55_133 
REMARK   57  A    between atoms: C77_136  and  O56_135 
REMARK   58  A    between atoms: C78_138  and  C79_139 
REMARK   59  A    between atoms: C79_139  and  O58_140 
REMARK   60  A    between atoms: C81_142  and  O61_149 
REMARK   61  A    between atoms: C82_143  and  O60_147 
REMARK   62  A    between atoms: C83_144  and  O59_145 
REMARK   63  A    between atoms: C86_150  and  O61_149 
REMARK   64  A    between atoms: C87_151  and  O62_152 
REMARK   65  A    between atoms: C89_154  and  O63_155 
REMARK   66  A    between atoms: C91_157  and  O69_166 
REMARK   67  A    between atoms: C92_158  and  C93_160 
REMARK   68  A    between atoms: C93_160  and  O65_161 
REMARK   69  A    between atoms: O65_161  and  S4_162 
REMARK   70  A    between atoms: C94_167  and  O69_166 
REMARK   71  A    between atoms: C95_168  and  O70_169 
REMARK   72  A    between atoms: O70_169  and  S5_170 
REMARK   73  A    between atoms: C96_174  and  O74_175 
REMARK   74  A    between atoms: O74_175  and  S6_176 
REMARK   75  A    between atoms: C97_180  and  O83_189 
REMARK   76  A    between atoms: C98_181  and  C99_183 
REMARK   77  A    between atoms: C99_183  and  O79_184 
REMARK   78  A    between atoms: O79_184  and  S7_185 
REMARK   79  A    between atoms: C_190  and  O83_189 
REMARK   80  A    between atoms: C_191  and  O84_192 
REMARK   81  A    between atoms: O84_192  and  S8_193 
REMARK   82  A    between atoms: C_197  and  O88_198 
REMARK   83  A    between atoms: O88_198  and  S9_199 
REMARK   84  A    between atoms: C_203  and  O92_204 
REMARK   85  A    between atoms: C_205  and  O92_204 
REMARK   86  A    between atoms: C_207  and  C_208 
REMARK   87  A    between atoms: C_208  and  O94_209 
REMARK   88  A    between atoms: O94_209  and  S10_210 
REMARK   89  A    between atoms: C_214  and  O98_215 
REMARK   90  A    between atoms: O98_215  and  S11_216 
REMARK   91  A    between atoms: C_220  and  O_221 
REMARK   92  A    between atoms: O_221  and  S12_222 
REMARK   93  A    between atoms: C_226  and  O_227 
REMARK   94  A    between atoms: O_227  and  S13_228 
REMARK   95  A    between atoms: C_232  and  C_234 
REMARK   96  A    between atoms: C_234  and  O_235 
REMARK   97  A    between atoms: O_235  and  S14_236 
REMARK   98  A    between atoms: C_240  and  O_241 
REMARK   99  A    between atoms: C_243  and  O_244 
REMARK  100  A    between atoms: C_246  and  O_247 
REMARK  101  A    between atoms: C_249  and  C_251 
REMARK  102  A    between atoms: C_251  and  O_252 
REMARK  103  A    between atoms: O_252  and  S15_253 
REMARK  104  A    between atoms: C_258  and  O_257 
REMARK  105  A    between atoms: C_259  and  C_260 
REMARK  106  A    between atoms: C_260  and  O_261 
REMARK  107  A    between atoms: O_261  and  S16_262 
REMARK  108  A    between atoms: C_267  and  O_268 
REMARK  109  A    between atoms: C_270  and  O_271 
REMARK  110  A    between atoms: O_271  and  S17_272 
REMARK  111  A    between atoms: C_276  and  O_277 
ROOT
HETATM    1  C1  GU3     2      57.764  -3.044 -20.308  1.00 66.07     0.293 C 
HETATM    2  C2  GU3     2      58.549  -4.306 -19.971  1.00 66.24     0.207 C 
HETATM    3  C4  GU3     2      57.992  -4.915 -18.691  1.00 66.34     0.186 C 
HETATM    4  C6  GU3     2      58.092  -3.945 -17.518  1.00 66.99     0.196 C 
HETATM    5  C7  GU3     2      58.287  -2.528 -18.037  1.00 68.04     0.257 C 
HETATM    6  O3  GU3     2      57.378  -2.313 -19.129  1.00 66.85    -0.340 OA
ENDROOT
BRANCH   1   7
HETATM    7  O   GU3     2      58.535  -2.222 -21.198  1.00 65.44    -0.348 OA
BRANCH   7   8
HETATM    8  C   GU3     2      57.744  -1.137 -21.707  1.00 64.46     0.187 C 
HETATM    9  C   GU3     2      58.516   0.170 -21.570  1.00 62.99     0.187 C 
HETATM   10  C   GU3     2      57.678   1.298 -22.178  1.00 62.76     0.231 C 
HETATM   11  C   GU3     2      57.355   0.970 -23.637  1.00 64.01     0.292 C 
HETATM   12  O   GU3     2      56.655  -0.284 -23.709  1.00 63.67    -0.348 OA
HETATM   13  C   GU3     2      57.409  -1.384 -23.172  1.00 64.77     0.181 C 
BRANCH   9  14
HETATM   14  O   GU3     2      58.742   0.484 -20.188  1.00 61.93    -0.385 OA
HETATM   15  C   GU3     2      59.912  -0.180 -19.701  1.00 62.20     0.202 C 
ENDBRANCH   9  14
BRANCH  10  16
HETATM   16  O   GU3     2      58.405   2.529 -22.123  1.00 61.96    -0.244 OA
BRANCH  16  17
HETATM   17  S17 GU3     2      57.553   3.617 -21.750  1.00 60.46     0.252 S 
HETATM   18  O   GU3     2      57.156   3.467 -20.311  1.00 60.43    -0.572 OA
HETATM   19  O   GU3     2      56.329   3.624 -22.617  1.00 61.49    -0.572 OA
HETATM   20  O   GU3     2      58.280   4.918 -21.924  1.00 58.92    -0.572 OA
ENDBRANCH  16  17
ENDBRANCH  10  16
BRANCH  11  21
HETATM   21  O   GU3     2      58.568   0.945 -24.404  1.00 64.76    -0.363 OA
HETATM   22  C   GU3     2      58.264   0.896 -25.801  1.00 65.99     0.204 C 
ENDBRANCH  11  21
BRANCH  13  23
HETATM   23  C   GU3     2      56.571  -2.654 -23.338  1.00 67.11     0.227 C 
BRANCH  23  24
HETATM   24  O   GU3     2      55.293  -2.511 -22.713  1.00 72.65    -0.254 OA
BRANCH  24  25
HETATM   25  S16 GU3     2      54.279  -3.511 -22.865  1.00 75.14     0.251 S 
HETATM   26  O   GU3     2      53.751  -3.478 -24.268  1.00 75.13    -0.572 OA
HETATM   27  O   GU3     2      53.157  -3.231 -21.909  1.00 73.85    -0.572 OA
HETATM   28  O   GU3     2      54.854  -4.866 -22.578  1.00 74.65    -0.572 OA
ENDBRANCH  24  25
ENDBRANCH  23  24
ENDBRANCH  13  23
ENDBRANCH   7   8
ENDBRANCH   1   7
BRANCH   2  29
HETATM   29  O1  GU3     2      58.471  -5.273 -21.031  1.00 65.57    -0.383 OA
HETATM   30  C3  GU3     2      59.371  -4.939 -22.092  1.00 65.51     0.202 C 
ENDBRANCH   2  29
BRANCH   5  31
HETATM   31  C8  GU3     2      58.010  -1.508 -16.929  1.00 69.17     0.206 C 
HETATM   32  O5  GU3     2      58.924  -1.108 -16.217  1.00 70.50    -0.646 OA
HETATM   33  O4  GU3     2      56.864  -1.088 -16.754  1.00 70.24    -0.646 OA
ENDBRANCH   5  31
BRANCH   3  34
HETATM   34  O2  GU3     2      58.635  -6.167 -18.391  1.00 65.59    -0.385 OA
HETATM   35  C5  GU3     2      60.040  -6.055 -18.131  1.00 65.25     0.202 C 
ENDBRANCH   3  34
BRANCH   4  36
HETATM   36  O6  GU3     2      56.880  -3.993 -16.750  1.00 65.96    -0.347 OA
BRANCH  36  37
HETATM   37  C9  GU3     2      56.780  -5.132 -15.881  1.00 64.79     0.294 C 
HETATM   38  C10 GU3     2      55.480  -4.968 -15.089  1.00 65.12     0.233 C 
HETATM   39  C11 GU3     2      55.566  -3.672 -14.277  1.00 63.30     0.212 C 
HETATM   40  C12 GU3     2      56.784  -3.705 -13.348  1.00 62.95     0.189 C 
HETATM   41  C   GU3     2      58.033  -3.986 -14.175  1.00 65.42     0.181 C 
HETATM   42  O   GU3     2      57.886  -5.182 -14.961  1.00 64.60    -0.348 OA
BRANCH  38  43
HETATM   43  O7  GU3     2      54.352  -4.918 -15.972  1.00 67.68    -0.244 OA
BRANCH  43  44
HETATM   44  S1  GU3     2      54.079  -6.156 -16.637  1.00 70.27     0.252 S 
HETATM   45  O10 GU3     2      52.615  -6.256 -16.950  1.00 67.35    -0.572 OA
HETATM   46  O8  GU3     2      54.468  -7.319 -15.771  1.00 68.81    -0.572 OA
HETATM   47  O9  GU3     2      54.857  -6.204 -17.919  1.00 69.71    -0.572 OA
ENDBRANCH  43  44
ENDBRANCH  38  43
BRANCH  39  48
HETATM   48  O11 GU3     2      54.375  -3.491 -13.504  1.00 60.36    -0.246 OA
BRANCH  48  49
HETATM   49  S2  GU3     2      53.627  -2.338 -13.906  1.00 54.80     0.252 S 
HETATM   50  O12 GU3     2      54.441  -1.092 -13.714  1.00 53.11    -0.572 OA
HETATM   51  O13 GU3     2      53.236  -2.446 -15.350  1.00 54.72    -0.572 OA
HETATM   52  O14 GU3     2      52.388  -2.261 -13.065  1.00 55.54    -0.572 OA
ENDBRANCH  48  49
ENDBRANCH  39  48
BRANCH  40  53
HETATM   53  O15 GU3     2      56.916  -2.433 -12.695  1.00 61.12    -0.348 OA
BRANCH  53  54
HETATM   54  C13 GU3     2      57.097  -2.547 -11.275  1.00 59.60     0.293 C 
HETATM   55  C14 GU3     2      57.822  -1.293 -10.814  1.00 59.16     0.207 C 
HETATM   56  C16 GU3     2      57.931  -1.318  -9.295  1.00 59.16     0.186 C 
HETATM   57  C18 GU3     2      56.546  -1.424  -8.669  1.00 58.66     0.196 C 
HETATM   58  C19 GU3     2      55.904  -2.702  -9.191  1.00 60.73     0.257 C 
HETATM   59  O18 GU3     2      55.820  -2.677 -10.627  1.00 60.15    -0.340 OA
BRANCH  55  60
HETATM   60  O16 GU3     2      59.121  -1.280 -11.426  1.00 58.79    -0.383 OA
HETATM   61  C15 GU3     2      59.434   0.025 -11.921  1.00 58.04     0.202 C 
ENDBRANCH  55  60
BRANCH  56  62
HETATM   62  O17 GU3     2      58.689  -0.202  -8.791  1.00 58.57    -0.385 OA
HETATM   63  C17 GU3     2      58.199   1.081  -9.198  1.00 59.46     0.202 C 
ENDBRANCH  56  62
BRANCH  57  64
HETATM   64  O21 GU3     2      56.594  -1.436  -7.232  1.00 57.66    -0.347 OA
BRANCH  64  65
HETATM   65  C21 GU3     2      56.305  -0.135  -6.693  1.00 55.90     0.292 C 
HETATM   66  C22 GU3     2      56.765  -0.018  -5.246  1.00 55.45     0.207 C 
HETATM   67  C24 GU3     2      55.961  -0.954  -4.352  1.00 55.88     0.186 C 
HETATM   68  C26 GU3     2      54.464  -0.663  -4.495  1.00 57.96     0.187 C 
HETATM   69  C27 GU3     2      54.081  -0.738  -5.976  1.00 56.19     0.181 C 
HETATM   70  O24 GU3     2      54.896   0.151  -6.760  1.00 56.52    -0.348 OA
BRANCH  66  71
HETATM   71  O22 GU3     2      58.166  -0.309  -5.129  1.00 52.26    -0.383 OA
HETATM   72  C23 GU3     2      58.953   0.821  -5.520  1.00 51.16     0.202 C 
ENDBRANCH  66  71
BRANCH  67  73
HETATM   73  O23 GU3     2      56.310  -0.747  -2.973  1.00 55.51    -0.385 OA
HETATM   74  C25 GU3     2      57.493  -1.471  -2.620  1.00 54.90     0.202 C 
ENDBRANCH  67  73
BRANCH  68  75
HETATM   75  O29 GU3     2      53.694  -1.652  -3.816  1.00 63.79    -0.348 OA
BRANCH  75  76
HETATM   76  C29 GU3     2      53.395  -1.470  -2.428  1.00 66.47     0.292 C 
HETATM   77  O30 GU3     2      54.432  -2.064  -1.629  1.00 69.43    -0.348 OA
HETATM   78  C30 GU3     2      54.232  -1.856  -0.220  1.00 71.00     0.180 C 
HETATM   79  C33 GU3     2      52.906  -2.431   0.264  1.00 71.11     0.187 C 
HETATM   80  C34 GU3     2      51.795  -1.856  -0.606  1.00 69.95     0.186 C 
HETATM   81  C35 GU3     2      52.074  -2.139  -2.077  1.00 67.78     0.207 C 
BRANCH  78  82
HETATM   82  C31 GU3     2      55.398  -2.486   0.526  1.00 71.18     0.201 C 
BRANCH  82  83
HETATM   83  O31 GU3     2      55.431  -3.896   0.259  1.00 71.95    -0.393 OA
HETATM   84  C32 GU3     2      56.714  -4.421   0.609  1.00 72.65     0.201 C 
ENDBRANCH  82  83
ENDBRANCH  78  82
BRANCH  79  85
HETATM   85  O34 GU3     2      52.738  -2.036   1.636  1.00 71.69    -0.348 OA
BRANCH  85  86
HETATM   86  C38 GU3     2      51.835  -2.873   2.379  1.00 73.45     0.292 C 
HETATM   87  O35 GU3     2      52.384  -4.191   2.547  1.00 73.22    -0.348 OA
HETATM   88  C39 GU3     2      53.650  -4.177   3.228  1.00 74.43     0.180 C 
HETATM   89  C40 GU3     2      53.542  -3.571   4.621  1.00 74.54     0.187 C 
HETATM   90  C41 GU3     2      52.910  -2.190   4.510  1.00 74.53     0.186 C 
HETATM   91  C43 GU3     2      51.588  -2.279   3.759  1.00 74.35     0.207 C 
BRANCH  88  92
HETATM   92  C   GU3     2      54.203  -5.591   3.314  1.00 75.15     0.201 C 
BRANCH  92  93
HETATM   93  O   GU3     2      53.341  -6.412   4.115  1.00 75.77    -0.393 OA
HETATM   94  C   GU3     2      53.892  -7.728   4.207  1.00 75.78     0.201 C 
ENDBRANCH  92  93
ENDBRANCH  88  92
BRANCH  89  95
HETATM   95  O38 GU3     2      54.855  -3.476   5.197  1.00 75.00    -0.348 OA
BRANCH  95  96
HETATM   96  C45 GU3     2      54.928  -4.118   6.480  1.00 75.10     0.292 C 
HETATM   97  C51 GU3     2      56.357  -4.585   6.717  1.00 75.86     0.207 C 
HETATM   98  C50 GU3     2      56.422  -5.229   8.096  1.00 76.06     0.186 C 
HETATM   99  C49 GU3     2      55.972  -4.252   9.176  1.00 75.12     0.187 C 
HETATM  100  C46 GU3     2      54.571  -3.770   8.820  1.00 74.76     0.180 C 
HETATM  101  O39 GU3     2      54.555  -3.185   7.507  1.00 75.10    -0.348 OA
BRANCH  97 102
HETATM  102  O41 GU3     2      56.723  -5.571   5.740  1.00 76.67    -0.383 OA
HETATM  103  C52 GU3     2      57.211  -4.945   4.550  1.00 77.26     0.202 C 
ENDBRANCH  97 102
BRANCH  98 104
HETATM  104  O42 GU3     2      57.718  -5.804   8.344  1.00 76.41    -0.385 OA
HETATM  105  C53 GU3     2      58.799  -4.869   8.253  1.00 76.75     0.202 C 
ENDBRANCH  98 104
BRANCH  99 106
HETATM  106  O43 GU3     2      55.950  -4.893  10.463  1.00 75.30    -0.348 OA
BRANCH 106 107
HETATM  107  C54 GU3     2      57.236  -4.901  11.105  1.00 75.17     0.292 C 
HETATM  108  C59 GU3     2      57.241  -5.812  12.326  1.00 75.25     0.207 C 
HETATM  109  C57 GU3     2      56.200  -5.294  13.309  1.00 75.77     0.186 C 
HETATM  110  C56 GU3     2      56.485  -3.846  13.688  1.00 76.23     0.187 C 
HETATM  111  C55 GU3     2      56.641  -3.003  12.429  1.00 76.59     0.180 C 
HETATM  112  O44 GU3     2      57.600  -3.574  11.522  1.00 75.75    -0.348 OA
BRANCH 108 113
HETATM  113  O46 GU3     2      56.912  -7.164  11.966  1.00 74.27    -0.383 OA
HETATM  114  C60 GU3     2      58.090  -7.876  11.574  1.00 73.24     0.202 C 
ENDBRANCH 108 113
BRANCH 109 115
HETATM  115  O45 GU3     2      56.094  -6.166  14.449  1.00 76.39    -0.385 OA
HETATM  116  C58 GU3     2      57.297  -6.261  15.221  1.00 76.10     0.202 C 
ENDBRANCH 109 115
BRANCH 110 117
HETATM  117  O47 GU3     2      55.412  -3.307  14.476  1.00 76.06    -0.348 OA
BRANCH 117 118
HETATM  118  C61 GU3     2      55.795  -3.146  15.850  1.00 76.80     0.292 C 
HETATM  119  C67 GU3     2      54.930  -2.061  16.476  1.00 78.03     0.207 C 
HETATM  120  C66 GU3     2      55.330  -1.924  17.940  1.00 78.00     0.186 C 
HETATM  121  C65 GU3     2      55.165  -3.258  18.656  1.00 77.42     0.187 C 
HETATM  122  C62 GU3     2      56.023  -4.284  17.929  1.00 76.74     0.180 C 
HETATM  123  O48 GU3     2      55.618  -4.386  16.554  1.00 77.47    -0.348 OA
BRANCH 119 124
HETATM  124  O50 GU3     2      55.181  -0.810  15.818  1.00 79.14    -0.383 OA
HETATM  125  C68 GU3     2      54.350  -0.669  14.661  1.00 79.91     0.202 C 
ENDBRANCH 119 124
BRANCH 120 126
HETATM  126  O51 GU3     2      54.646  -0.870  18.642  1.00 77.78    -0.385 OA
HETATM  127  C69 GU3     2      53.463  -0.371  18.007  1.00 77.02     0.202 C 
ENDBRANCH 120 126
BRANCH 121 128
HETATM  128  O52 GU3     2      55.640  -3.168  20.009  1.00 76.72    -0.348 OA
BRANCH 128 129
HETATM  129  C70 GU3     2      54.783  -2.403  20.873  1.00 75.80     0.292 C 
HETATM  130  O53 GU3     2      53.604  -3.145  21.233  1.00 75.10    -0.348 OA
HETATM  131  C71 GU3     2      53.894  -4.412  21.850  1.00 73.76     0.180 C 
HETATM  132  C72 GU3     2      54.768  -4.221  23.094  1.00 70.87     0.187 C 
HETATM  133  C73 GU3     2      56.000  -3.368  22.776  1.00 74.22     0.186 C 
HETATM  134  C75 GU3     2      55.573  -2.058  22.128  1.00 75.63     0.207 C 
BRANCH 131 135
HETATM  135  C   GU3     2      52.601  -5.045  22.339  1.00 74.23     0.201 C 
BRANCH 135 136
HETATM  136  O   GU3     2      51.654  -5.194  21.273  1.00 76.87    -0.393 OA
HETATM  137  C   GU3     2      50.431  -5.701  21.813  1.00 76.15     0.201 C 
ENDBRANCH 135 136
ENDBRANCH 131 135
BRANCH 132 138
HETATM  138  O56 GU3     2      55.330  -5.455  23.423  1.00 62.09    -0.348 OA
BRANCH 138 139
HETATM  139  C77 GU3     2      54.616  -6.045  24.511  1.00 59.00     0.292 C 
HETATM  140  O57 GU3     2      54.993  -5.418  25.746  1.00 57.04    -0.348 OA
HETATM  141  C78 GU3     2      54.112  -5.809  26.812  1.00 53.41     0.180 C 
HETATM  142  C81 GU3     2      54.188  -7.314  27.039  1.00 52.20     0.187 C 
HETATM  143  C82 GU3     2      53.976  -8.045  25.718  1.00 55.64     0.186 C 
HETATM  144  C83 GU3     2      54.879  -7.539  24.603  1.00 57.83     0.207 C 
BRANCH 141 145
HETATM  145  C79 GU3     2      54.492  -5.026  28.060  1.00 51.18     0.201 C 
BRANCH 145 146
HETATM  146  O58 GU3     2      55.860  -5.291  28.405  1.00 50.49    -0.393 OA
HETATM  147  C80 GU3     2      56.369  -4.239  29.230  1.00 49.10     0.201 C 
ENDBRANCH 145 146
ENDBRANCH 141 145
BRANCH 142 148
HETATM  148  O61 GU3     2      53.132  -7.697  27.932  1.00 49.76    -0.348 OA
BRANCH 148 149
HETATM  149  C86 GU3     2      53.529  -8.761  28.811  1.00 47.30     0.292 C 
HETATM  150  O64 GU3     2      54.451  -8.270  29.798  1.00 48.61    -0.348 OA
HETATM  151  C92 GU3     2      53.925  -7.165  30.556  1.00 46.62     0.181 C 
HETATM  152  C91 GU3     2      52.612  -7.506  31.249  1.00 45.42     0.187 C 
HETATM  153  C89 GU3     2      51.643  -8.137  30.255  1.00 45.57     0.186 C 
HETATM  154  C87 GU3     2      52.307  -9.306  29.537  1.00 46.58     0.207 C 
BRANCH 151 155
HETATM  155  C93 GU3     2      54.951  -6.827  31.639  1.00 46.95     0.227 C 
BRANCH 155 156
HETATM  156  O65 GU3     2      55.171  -7.977  32.460  1.00 50.01    -0.254 OA
BRANCH 156 157
HETATM  157  S4  GU3     2      56.045  -7.922  33.590  1.00 51.16     0.251 S 
HETATM  158  O66 GU3     2      56.220  -9.305  34.145  1.00 48.23    -0.572 OA
HETATM  159  O67 GU3     2      55.456  -7.028  34.641  1.00 48.11    -0.572 OA
HETATM  160  O68 GU3     2      57.381  -7.391  33.162  1.00 53.50    -0.572 OA
ENDBRANCH 156 157
ENDBRANCH 155 156
ENDBRANCH 151 155
BRANCH 152 161
HETATM  161  O69 GU3     2      52.073  -6.294  31.800  1.00 44.94    -0.348 OA
BRANCH 161 162
HETATM  162  C94 GU3     2      52.020  -6.290  33.235  1.00 43.67     0.294 C 
HETATM  163  C95 GU3     2      52.089  -4.840  33.726  1.00 44.78     0.233 C 
HETATM  164  C96 GU3     2      51.846  -4.757  35.238  1.00 44.41     0.212 C 
HETATM  165  C97 GU3     2      50.552  -5.491  35.602  1.00 44.24     0.189 C 
HETATM  166  C98 GU3     2      50.605  -6.917  35.064  1.00 42.32     0.181 C 
HETATM  167  O78 GU3     2      50.792  -6.916  33.639  1.00 43.10    -0.348 OA
BRANCH 163 168
HETATM  168  O70 GU3     2      53.393  -4.327  33.434  1.00 47.55    -0.244 OA
BRANCH 168 169
HETATM  169  S5  GU3     2      53.386  -3.207  32.543  1.00 42.50     0.252 S 
HETATM  170  O71 GU3     2      52.222  -2.304  32.827  1.00 45.47    -0.572 OA
HETATM  171  O72 GU3     2      53.313  -3.687  31.124  1.00 43.22    -0.572 OA
HETATM  172  O73 GU3     2      54.661  -2.444  32.745  1.00 45.87    -0.572 OA
ENDBRANCH 168 169
ENDBRANCH 163 168
BRANCH 164 173
HETATM  173  O74 GU3     2      51.725  -3.383  35.630  1.00 47.98    -0.246 OA
BRANCH 173 174
HETATM  174  S6  GU3     2      52.770  -2.888  36.479  1.00 48.36     0.252 S 
HETATM  175  O75 GU3     2      53.999  -2.620  35.662  1.00 51.02    -0.572 OA
HETATM  176  O76 GU3     2      53.101  -3.870  37.564  1.00 47.59    -0.572 OA
HETATM  177  O77 GU3     2      52.326  -1.605  37.115  1.00 47.30    -0.572 OA
ENDBRANCH 173 174
ENDBRANCH 164 173
BRANCH 165 178
HETATM  178  O83 GU3     2      50.367  -5.517  37.026  1.00 46.49    -0.344 OA
BRANCH 178 179
HETATM  179  C   GU3     2      49.624  -4.402  37.541  1.00 50.38     0.329 C 
HETATM  180  C   GU3     2      49.634  -4.507  39.066  1.00 54.62     0.162 C 
HETATM  181  C   GU3     2      48.565  -3.939  39.749  1.00 56.33     0.163 C 
HETATM  182  C   GU3     2      47.335  -4.155  39.146  1.00 52.58     0.141 C 
HETATM  183  C   GU3     2      47.289  -3.929  37.780  1.00 51.34     0.111 C 
HETATM  184  O   GU3     2      48.290  -4.430  37.000  1.00 50.41    -0.313 OA
BRANCH 180 185
HETATM  185  O84 GU3     2      50.586  -5.247  39.693  1.00 60.19    -0.210 OA
BRANCH 185 186
HETATM  186  S8  GU3     2      50.039  -6.372  40.394  1.00 60.28     0.256 S 
HETATM  187  O85 GU3     2      51.044  -7.484  40.429  1.00 61.21    -0.572 OA
HETATM  188  O86 GU3     2      48.808  -6.872  39.699  1.00 61.90    -0.572 OA
HETATM  189  O87 GU3     2      49.695  -5.968  41.797  1.00 58.91    -0.572 OA
ENDBRANCH 185 186
ENDBRANCH 180 185
BRANCH 181 190
HETATM  190  O88 GU3     2      48.714  -3.138  40.836  1.00 64.86    -0.208 OA
BRANCH 190 191
HETATM  191  S9  GU3     2      49.014  -1.762  40.558  1.00 67.23     0.257 S 
HETATM  192  O89 GU3     2      48.392  -0.892  41.609  1.00 64.34    -0.572 OA
HETATM  193  O90 GU3     2      48.471  -1.347  39.223  1.00 67.04    -0.572 OA
HETATM  194  O91 GU3     2      50.499  -1.554  40.579  1.00 64.93    -0.572 OA
ENDBRANCH 190 191
ENDBRANCH 181 190
BRANCH 182 195
HETATM  195  O92 GU3     2      46.284  -4.714  39.804  1.00 50.94    -0.312 OA
BRANCH 195 196
HETATM  196  C   GU3     2      45.619  -3.868  40.754  1.00 51.51     0.300 C 
HETATM  197  O93 GU3     2      44.611  -3.062  40.121  1.00 51.29    -0.348 OA
HETATM  198  C   GU3     2      43.557  -3.812  39.494  1.00 53.04     0.183 C 
HETATM  199  C   GU3     2      42.849  -4.762  40.469  1.00 51.99     0.209 C 
HETATM  200  C   GU3     2      43.872  -5.619  41.220  1.00 50.81     0.213 C 
HETATM  201  C   GU3     2      44.959  -4.731  41.834  1.00 51.84     0.233 C 
BRANCH 198 202
HETATM  202  C   GU3     2      42.551  -2.780  38.978  1.00 54.83     0.227 C 
BRANCH 202 203
HETATM  203  O94 GU3     2      42.094  -1.943  40.045  1.00 60.30    -0.254 OA
BRANCH 203 204
HETATM  204  S10 GU3     2      41.211  -0.840  39.816  1.00 61.61     0.251 S 
HETATM  205  O95 GU3     2      40.416  -0.580  41.062  1.00 58.76    -0.572 OA
HETATM  206  O96 GU3     2      40.273  -1.154  38.687  1.00 59.90    -0.572 OA
HETATM  207  O97 GU3     2      42.016   0.379  39.474  1.00 60.50    -0.572 OA
ENDBRANCH 203 204
ENDBRANCH 202 203
ENDBRANCH 198 202
BRANCH 199 208
HETATM  208  O98 GU3     2      42.001  -5.636  39.716  1.00 55.06    -0.246 OA
BRANCH 208 209
HETATM  209  S11 GU3     2      40.616  -5.540  40.071  1.00 55.30     0.252 S 
HETATM  210  O   GU3     2      39.825  -6.454  39.183  1.00 54.77    -0.572 OA
HETATM  211  O   GU3     2      40.125  -4.134  39.889  1.00 56.25    -0.572 OA
HETATM  212  O99 GU3     2      40.425  -5.947  41.502  1.00 55.77    -0.572 OA
ENDBRANCH 208 209
ENDBRANCH 199 208
BRANCH 200 213
HETATM  213  O   GU3     2      43.217  -6.361  42.255  1.00 48.12    -0.246 OA
BRANCH 213 214
HETATM  214  S12 GU3     2      43.315  -7.783  42.098  1.00 43.96     0.252 S 
HETATM  215  O   GU3     2      42.536  -8.447  43.193  1.00 45.35    -0.572 OA
HETATM  216  O   GU3     2      44.749  -8.216  42.180  1.00 43.25    -0.572 OA
HETATM  217  O   GU3     2      42.749  -8.205  40.775  1.00 44.57    -0.572 OA
ENDBRANCH 213 214
ENDBRANCH 200 213
BRANCH 201 218
HETATM  218  O   GU3     2      45.933  -5.552  42.486  1.00 55.42    -0.244 OA
BRANCH 218 219
HETATM  219  S13 GU3     2      46.433  -4.952  43.685  1.00 57.11     0.252 S 
HETATM  220  O   GU3     2      45.296  -4.511  44.560  1.00 56.42    -0.572 OA
HETATM  221  O   GU3     2      47.288  -3.769  43.339  1.00 57.35    -0.572 OA
HETATM  222  O   GU3     2      47.268  -5.954  44.426  1.00 56.70    -0.572 OA
ENDBRANCH 218 219
ENDBRANCH 201 218
ENDBRANCH 195 196
ENDBRANCH 182 195
BRANCH 183 223
HETATM  223  C   GU3     2      46.225  -3.071  37.105  1.00 48.92     0.260 C 
BRANCH 223 224
HETATM  224  O   GU3     2      45.317  -3.878  36.358  1.00 45.16    -0.250 OA
BRANCH 224 225
HETATM  225  S14 GU3     2      44.336  -3.237  35.542  1.00 41.87     0.251 S 
HETATM  226  O   GU3     2      42.966  -3.590  36.044  1.00 44.64    -0.572 OA
HETATM  227  O   GU3     2      44.502  -3.708  34.128  1.00 43.66    -0.572 OA
HETATM  228  O   GU3     2      44.515  -1.749  35.603  1.00 43.64    -0.572 OA
ENDBRANCH 224 225
ENDBRANCH 223 224
ENDBRANCH 183 223
ENDBRANCH 178 179
ENDBRANCH 165 178
BRANCH 166 229
HETATM  229  C99 GU3     2      49.306  -7.676  35.346  1.00 37.01     0.227 C 
BRANCH 229 230
HETATM  230  O79 GU3     2      48.203  -7.077  34.660  1.00 35.49    -0.254 OA
BRANCH 230 231
HETATM  231  S7  GU3     2      47.056  -7.836  34.264  1.00 31.60     0.251 S 
HETATM  232  O80 GU3     2      45.935  -6.899  33.927  1.00 28.23    -0.572 OA
HETATM  233  O81 GU3     2      46.620  -8.736  35.381  1.00 36.27    -0.572 OA
HETATM  234  O82 GU3     2      47.398  -8.659  33.058  1.00 30.73    -0.572 OA
ENDBRANCH 230 231
ENDBRANCH 229 230
ENDBRANCH 166 229
ENDBRANCH 161 162
ENDBRANCH 152 161
BRANCH 153 235
HETATM  235  O63 GU3     2      50.403  -8.534  30.867  1.00 43.74    -0.385 OA
HETATM  236  C90 GU3     2      50.536  -9.591  31.824  1.00 43.02     0.202 C 
ENDBRANCH 153 235
BRANCH 154 237
HETATM  237  O62 GU3     2      51.413 -10.089  28.726  1.00 45.42    -0.383 OA
HETATM  238  C88 GU3     2      50.801  -9.360  27.658  1.00 48.22     0.202 C 
ENDBRANCH 154 237
ENDBRANCH 148 149
ENDBRANCH 142 148
BRANCH 143 239
HETATM  239  O60 GU3     2      54.106  -9.468  25.883  1.00 55.93    -0.385 OA
HETATM  240  C85 GU3     2      55.430  -9.880  26.245  1.00 58.31     0.202 C 
ENDBRANCH 143 239
BRANCH 144 241
HETATM  241  O59 GU3     2      54.557  -8.197  23.365  1.00 59.11    -0.383 OA
HETATM  242  C84 GU3     2      55.636  -8.098  22.430  1.00 57.42     0.202 C 
ENDBRANCH 144 241
ENDBRANCH 138 139
ENDBRANCH 132 138
BRANCH 133 243
HETATM  243  O54 GU3     2      56.789  -3.138  23.956  1.00 73.65    -0.385 OA
HETATM  244  C74 GU3     2      56.090  -2.430  24.987  1.00 73.92     0.202 C 
ENDBRANCH 133 243
BRANCH 134 245
HETATM  245  O55 GU3     2      56.683  -1.181  21.862  1.00 76.07    -0.383 OA
HETATM  246  C76 GU3     2      57.713  -1.764  21.054  1.00 76.54     0.202 C 
ENDBRANCH 134 245
ENDBRANCH 128 129
ENDBRANCH 121 128
BRANCH 122 247
HETATM  247  C63 GU3     2      55.924  -5.661  18.567  1.00 76.63     0.201 C 
BRANCH 247 248
HETATM  248  O49 GU3     2      54.583  -6.158  18.456  1.00 76.75    -0.393 OA
HETATM  249  C64 GU3     2      54.622  -7.579  18.302  1.00 77.35     0.201 C 
ENDBRANCH 247 248
ENDBRANCH 122 247
ENDBRANCH 117 118
ENDBRANCH 110 117
BRANCH 111 250
HETATM  250  C   GU3     2      57.073  -1.592  12.796  1.00 77.43     0.201 C 
BRANCH 250 251
HETATM  251  O   GU3     2      58.364  -1.625  13.423  1.00 77.88    -0.393 OA
HETATM  252  C   GU3     2      58.747  -0.299  13.799  1.00 77.58     0.201 C 
ENDBRANCH 250 251
ENDBRANCH 111 250
ENDBRANCH 106 107
ENDBRANCH  99 106
BRANCH 100 253
HETATM  253  C47 GU3     2      54.063  -2.717   9.792  1.00 74.28     0.201 C 
BRANCH 253 254
HETATM  254  O40 GU3     2      54.787  -1.492   9.607  1.00 75.53    -0.393 OA
HETATM  255  C48 GU3     2      54.124  -0.432  10.302  1.00 74.51     0.201 C 
ENDBRANCH 253 254
ENDBRANCH 100 253
ENDBRANCH  95  96
ENDBRANCH  89  95
BRANCH  90 256
HETATM  256  O36 GU3     2      52.765  -1.524   5.777  1.00 74.74    -0.385 OA
HETATM  257  C42 GU3     2      51.920  -2.223   6.699  1.00 76.59     0.202 C 
ENDBRANCH  90 256
BRANCH  91 258
HETATM  258  O37 GU3     2      50.911  -1.010   3.698  1.00 75.04    -0.383 OA
HETATM  259  C44 GU3     2      51.676   0.037   3.090  1.00 76.46     0.202 C 
ENDBRANCH  91 258
ENDBRANCH  85  86
ENDBRANCH  79  85
BRANCH  80 260
HETATM  260  O33 GU3     2      50.489  -2.288  -0.180  1.00 69.87    -0.385 OA
HETATM  261  C37 GU3     2      49.964  -3.422  -0.881  1.00 69.89     0.202 C 
ENDBRANCH  80 260
BRANCH  81 262
HETATM  262  O32 GU3     2      51.015  -1.587  -2.873  1.00 69.32    -0.383 OA
HETATM  263  C36 GU3     2      50.857  -2.337  -4.082  1.00 70.71     0.202 C 
ENDBRANCH  81 262
ENDBRANCH  75  76
ENDBRANCH  68  75
BRANCH  69 264
HETATM  264  C28 GU3     2      52.612  -0.348  -6.159  1.00 54.95     0.227 C 
BRANCH 264 265
HETATM  265  O25 GU3     2      52.401   1.020  -5.799  1.00 53.15    -0.254 OA
BRANCH 265 266
HETATM  266  S3  GU3     2      51.157   1.675  -6.065  1.00 47.58     0.251 S 
HETATM  267  O26 GU3     2      50.863   1.628  -7.534  1.00 48.71    -0.572 OA
HETATM  268  O27 GU3     2      51.256   3.105  -5.623  1.00 49.10    -0.572 OA
HETATM  269  O28 GU3     2      50.054   0.991  -5.316  1.00 48.30    -0.572 OA
ENDBRANCH 265 266
ENDBRANCH 264 265
ENDBRANCH  69 264
ENDBRANCH  64  65
ENDBRANCH  57  64
BRANCH  58 270
HETATM  270  C20 GU3     2      54.496  -2.847  -8.609  1.00 62.85     0.206 C 
HETATM  271  O20 GU3     2      53.532  -2.364  -9.196  1.00 63.55    -0.646 OA
HETATM  272  O19 GU3     2      54.327  -3.451  -7.547  1.00 62.48    -0.646 OA
ENDBRANCH  58 270
ENDBRANCH  53  54
ENDBRANCH  40  53
BRANCH  41 273
HETATM  273  C   GU3     2      59.245  -4.131 -13.250  1.00 67.22     0.227 C 
BRANCH 273 274
HETATM  274  O   GU3     2      59.091  -5.228 -12.343  1.00 70.79    -0.254 OA
BRANCH 274 275
HETATM  275  S15 GU3     2      60.034  -5.467 -11.292  1.00 70.92     0.251 S 
HETATM  276  O   GU3     2      59.518  -6.565 -10.411  1.00 70.26    -0.572 OA
HETATM  277  O   GU3     2      60.215  -4.221 -10.476  1.00 70.64    -0.572 OA
HETATM  278  O   GU3     2      61.355  -5.875 -11.873  1.00 71.52    -0.572 OA
ENDBRANCH 274 275
ENDBRANCH 273 274
ENDBRANCH  41 273
ENDBRANCH  36  37
ENDBRANCH   4  36
TORSDOF 111
